data_image0
_cell_length_a       11.0259
_cell_length_b       11.0259
_cell_length_c       21.3391
_cell_angle_alpha    90
_cell_angle_beta     90
_cell_angle_gamma    120

_symmetry_space_group_name_H-M    "P 1"
_symmetry_int_tables_number       1

loop_
  _symmetry_equiv_pos_as_xyz
  'x, y, z'

loop_
  _atom_site_label
  _atom_site_occupancy
  _atom_site_fract_x
  _atom_site_fract_y
  _atom_site_fract_z
  _atom_site_thermal_displace_type
  _atom_site_B_iso_or_equiv
  _atom_site_type_symbol
  C1       1.0000 0.79569  0.68354  0.09372  Biso   1.000  C
  C2       1.0000 0.79777  0.68500  0.16013  Biso   1.000  C
  C3       1.0000 0.73916  0.75769  0.19354  Biso   1.000  C
  C4       1.0000 0.73699  0.75514  0.06011  Biso   1.000  C
  C5       1.0000 0.63885  0.78008  0.09366  Biso   1.000  C
  C6       1.0000 0.64000  0.78237  0.16022  Biso   1.000  C
  C7       1.0000 0.51591  0.75685  0.19354  Biso   1.000  C
  C8       1.0000 0.51554  0.75437  0.06011  Biso   1.000  C
  C9       1.0000 0.38527  0.68210  0.09373  Biso   1.000  C
  C10      1.0000 0.38465  0.68353  0.16013  Biso   1.000  C
  C11      1.0000 0.26763  0.57397  0.19346  Biso   1.000  C
  C12      1.0000 0.26954  0.57285  0.06018  Biso   1.000  C
  C13      1.0000 0.18295  0.44528  0.09373  Biso   1.000  C
  C14      1.0000 0.18095  0.44526  0.16011  Biso   1.000  C
  C15      1.0000 0.13974  0.31671  0.19345  Biso   1.000  C
  C16      1.0000 0.14281  0.31789  0.06017  Biso   1.000  C
  C17      1.0000 0.15017  0.20912  0.09372  Biso   1.000  C
  C18      1.0000 0.14808  0.20765  0.16013  Biso   1.000  C
  C19      1.0000 0.20670  0.13496  0.19354  Biso   1.000  C
  C20      1.0000 0.20887  0.13752  0.06011  Biso   1.000  C
  C21      1.0000 0.30700  0.11257  0.09366  Biso   1.000  C
  C22      1.0000 0.30585  0.11027  0.16021  Biso   1.000  C
  C23      1.0000 0.42995  0.13578  0.19354  Biso   1.000  C
  C24      1.0000 0.43031  0.13828  0.06011  Biso   1.000  C
  C25      1.0000 0.56058  0.21054  0.09373  Biso   1.000  C
  C26      1.0000 0.56120  0.20911  0.16013  Biso   1.000  C
  C27      1.0000 0.67822  0.31867  0.19346  Biso   1.000  C
  C28      1.0000 0.67631  0.31980  0.06017  Biso   1.000  C
  C29      1.0000 0.76290  0.44736  0.09373  Biso   1.000  C
  C30      1.0000 0.76490  0.44738  0.16011  Biso   1.000  C
  C31      1.0000 0.80611  0.57593  0.19345  Biso   1.000  C
  C32      1.0000 0.80304  0.57476  0.06017  Biso   1.000  C
  C33      1.0000 0.79607  0.68378  0.29360  Biso   1.000  C
  C34      1.0000 0.79608  0.68379  0.36012  Biso   1.000  C
  C35      1.0000 0.73821  0.75653  0.39370  Biso   1.000  C
  C36      1.0000 0.73821  0.75654  0.26003  Biso   1.000  C
  C37      1.0000 0.63899  0.78032  0.29353  Biso   1.000  C
  C38      1.0000 0.63901  0.78035  0.36019  Biso   1.000  C
  C39      1.0000 0.51573  0.75569  0.39370  Biso   1.000  C
  C40      1.0000 0.51572  0.75570  0.26003  Biso   1.000  C
  C41      1.0000 0.38516  0.68230  0.29361  Biso   1.000  C
  C42      1.0000 0.38517  0.68230  0.36012  Biso   1.000  C
  C43      1.0000 0.26848  0.57345  0.39363  Biso   1.000  C
  C44      1.0000 0.26844  0.57347  0.26010  Biso   1.000  C
  C45      1.0000 0.18255  0.44526  0.29363  Biso   1.000  C
  C46      1.0000 0.18254  0.44525  0.36009  Biso   1.000  C
  C47      1.0000 0.14107  0.31721  0.39363  Biso   1.000  C
  C48      1.0000 0.14103  0.31720  0.26010  Biso   1.000  C
  C49      1.0000 0.14978  0.20885  0.29360  Biso   1.000  C
  C50      1.0000 0.14977  0.20884  0.36012  Biso   1.000  C
  C51      1.0000 0.20765  0.13610  0.39370  Biso   1.000  C
  C52      1.0000 0.20764  0.13610  0.26003  Biso   1.000  C
  C53      1.0000 0.30686  0.11232  0.29353  Biso   1.000  C
  C54      1.0000 0.30685  0.11228  0.36019  Biso   1.000  C
  C55      1.0000 0.43013  0.13694  0.39370  Biso   1.000  C
  C56      1.0000 0.43014  0.13693  0.26003  Biso   1.000  C
  C57      1.0000 0.56069  0.21033  0.29360  Biso   1.000  C
  C58      1.0000 0.56069  0.21033  0.36012  Biso   1.000  C
  C59      1.0000 0.67738  0.31918  0.39363  Biso   1.000  C
  C60      1.0000 0.67741  0.31916  0.26010  Biso   1.000  C
  C61      1.0000 0.76330  0.44737  0.29363  Biso   1.000  C
  C62      1.0000 0.76331  0.44738  0.36009  Biso   1.000  C
  C63      1.0000 0.80478  0.57542  0.39363  Biso   1.000  C
  C64      1.0000 0.80482  0.57543  0.26010  Biso   1.000  C
  C65      1.0000 0.79767  0.68492  0.49364  Biso   1.000  C
  C66      1.0000 0.79662  0.68420  0.56007  Biso   1.000  C
  C67      1.0000 0.73812  0.75645  0.59357  Biso   1.000  C
  C68      1.0000 0.73906  0.75756  0.46020  Biso   1.000  C
  C69      1.0000 0.63993  0.78220  0.49356  Biso   1.000  C
  C70      1.0000 0.63934  0.78101  0.56014  Biso   1.000  C
  C71      1.0000 0.51573  0.75561  0.59356  Biso   1.000  C
  C72      1.0000 0.51589  0.75670  0.46020  Biso   1.000  C
  C73      1.0000 0.38469  0.68341  0.49364  Biso   1.000  C
  C74      1.0000 0.38504  0.68270  0.56006  Biso   1.000  C
  C75      1.0000 0.26868  0.57333  0.59348  Biso   1.000  C
  C76      1.0000 0.26773  0.57389  0.46029  Biso   1.000  C
  C77      1.0000 0.18097  0.44525  0.49367  Biso   1.000  C
  C78      1.0000 0.18201  0.44525  0.56005  Biso   1.000  C
  C79      1.0000 0.14139  0.31733  0.59349  Biso   1.000  C
  C80      1.0000 0.13988  0.31676  0.46029  Biso   1.000  C
  C81      1.0000 0.14818  0.20772  0.49364  Biso   1.000  C
  C82      1.0000 0.14924  0.20844  0.56007  Biso   1.000  C
  C83      1.0000 0.20774  0.13619  0.59357  Biso   1.000  C
  C84      1.0000 0.20680  0.13508  0.46020  Biso   1.000  C
  C85      1.0000 0.30592  0.11043  0.49356  Biso   1.000  C
  C86      1.0000 0.30651  0.11162  0.56014  Biso   1.000  C
  C87      1.0000 0.43012  0.13702  0.59357  Biso   1.000  C
  C88      1.0000 0.42996  0.13593  0.46020  Biso   1.000  C
  C89      1.0000 0.56116  0.20922  0.49364  Biso   1.000  C
  C90      1.0000 0.56082  0.20993  0.56007  Biso   1.000  C
  C91      1.0000 0.67717  0.31930  0.59348  Biso   1.000  C
  C92      1.0000 0.67813  0.31874  0.46029  Biso   1.000  C
  C93      1.0000 0.76488  0.44739  0.49367  Biso   1.000  C
  C94      1.0000 0.76384  0.44738  0.56005  Biso   1.000  C
  C95      1.0000 0.80446  0.57530  0.59349  Biso   1.000  C
  C96      1.0000 0.80597  0.57587  0.46029  Biso   1.000  C
  C97      1.0000 0.79656  0.68418  0.69353  Biso   1.000  C
  C98      1.0000 0.79670  0.68428  0.76016  Biso   1.000  C
  C99      1.0000 0.73855  0.75698  0.79367  Biso   1.000  C
  C100     1.0000 0.73838  0.75677  0.65999  Biso   1.000  C
  C101     1.0000 0.63930  0.78094  0.69345  Biso   1.000  C
  C102     1.0000 0.63937  0.78108  0.76023  Biso   1.000  C
  C103     1.0000 0.51582  0.75616  0.79367  Biso   1.000  C
  C104     1.0000 0.51579  0.75592  0.65999  Biso   1.000  C
  C105     1.0000 0.38507  0.68268  0.69353  Biso   1.000  C
  C106     1.0000 0.38503  0.68279  0.76015  Biso   1.000  C
  C107     1.0000 0.26836  0.57363  0.79358  Biso   1.000  C
  C108     1.0000 0.26851  0.57351  0.66009  Biso   1.000  C
  C109     1.0000 0.18235  0.44525  0.69356  Biso   1.000  C
  C110     1.0000 0.18225  0.44526  0.76014  Biso   1.000  C
  C111     1.0000 0.14079  0.31705  0.79359  Biso   1.000  C
  C112     1.0000 0.14104  0.31715  0.66009  Biso   1.000  C
  C113     1.0000 0.14929  0.20846  0.69353  Biso   1.000  C
  C114     1.0000 0.14916  0.20836  0.76016  Biso   1.000  C
  C115     1.0000 0.20731  0.13566  0.79367  Biso   1.000  C
  C116     1.0000 0.20748  0.13587  0.65999  Biso   1.000  C
  C117     1.0000 0.30655  0.11169  0.69345  Biso   1.000  C
  C118     1.0000 0.30649  0.11155  0.76023  Biso   1.000  C
  C119     1.0000 0.43003  0.13648  0.79367  Biso   1.000  C
  C120     1.0000 0.43006  0.13671  0.65999  Biso   1.000  C
  C121     1.0000 0.56079  0.20994  0.69353  Biso   1.000  C
  C122     1.0000 0.56082  0.20984  0.76015  Biso   1.000  C
  C123     1.0000 0.67749  0.31901  0.79358  Biso   1.000  C
  C124     1.0000 0.67734  0.31912  0.66009  Biso   1.000  C
  C125     1.0000 0.76349  0.44738  0.69356  Biso   1.000  C
  C126     1.0000 0.76360  0.44738  0.76014  Biso   1.000  C
  C127     1.0000 0.80505  0.57559  0.79358  Biso   1.000  C
  C128     1.0000 0.80481  0.57548  0.66009  Biso   1.000  C
  C129     1.0000 0.79583  0.68366  0.89360  Biso   1.000  C
  C130     1.0000 0.79484  0.68293  0.96003  Biso   1.000  C
  C131     1.0000 0.73671  0.75482  0.99370  Biso   1.000  C
  C132     1.0000 0.73801  0.75635  0.86009  Biso   1.000  C
  C133     1.0000 0.63889  0.78015  0.89352  Biso   1.000  C
  C134     1.0000 0.63836  0.77909  0.96011  Biso   1.000  C
  C135     1.0000 0.51550  0.75405  0.99370  Biso   1.000  C
  C136     1.0000 0.51573  0.75555  0.86009  Biso   1.000  C
  C137     1.0000 0.38527  0.68222  0.89360  Biso   1.000  C
  C138     1.0000 0.38552  0.68152  0.96003  Biso   1.000  C
  C139     1.0000 0.26975  0.57274  0.99360  Biso   1.000  C
  C140     1.0000 0.26878  0.57335  0.86018  Biso   1.000  C
  C141     1.0000 0.18285  0.44528  0.89361  Biso   1.000  C
  C142     1.0000 0.18377  0.44529  0.96001  Biso   1.000  C
  C143     1.0000 0.14314  0.31801  0.99360  Biso   1.000  C
  C144     1.0000 0.14152  0.31736  0.86018  Biso   1.000  C
  C145     1.0000 0.15003  0.20899  0.89360  Biso   1.000  C
  C146     1.0000 0.15102  0.20973  0.96003  Biso   1.000  C
  C147     1.0000 0.20916  0.13784  0.99370  Biso   1.000  C
  C148     1.0000 0.20784  0.13630  0.86009  Biso   1.000  C
  C149     1.0000 0.30696  0.11250  0.89352  Biso   1.000  C
  C150     1.0000 0.30750  0.11357  0.96011  Biso   1.000  C
  C151     1.0000 0.43036  0.13860  0.99370  Biso   1.000  C
  C152     1.0000 0.43013  0.13709  0.86009  Biso   1.000  C
  C153     1.0000 0.56059  0.21042  0.89360  Biso   1.000  C
  C154     1.0000 0.56033  0.21113  0.96003  Biso   1.000  C
  C155     1.0000 0.67610  0.31991  0.99360  Biso   1.000  C
  C156     1.0000 0.67708  0.31930  0.86018  Biso   1.000  C
  C157     1.0000 0.76300  0.44736  0.89361  Biso   1.000  C
  C158     1.0000 0.76208  0.44736  0.96001  Biso   1.000  C
  C159     1.0000 0.80271  0.57464  0.99360  Biso   1.000  C
  C160     1.0000 0.80433  0.57528  0.86018  Biso   1.000  C
  I1       1.0000 0.47293  0.44632  0.20365  Biso   1.000  I
  I2       1.0000 0.47293  0.44632  0.44419  Biso   1.000  I
  I3       1.0000 0.47293  0.44632  0.72814  Biso   1.000  I
  Cl1      1.0000 0.47293  0.44632  0.32568  Biso   1.000  Cl
  Cl2      1.0000 0.47292  0.44631  0.61069  Biso   1.000  Cl
  Cl3      1.0000 0.47293  0.44632  0.84598  Biso   1.000  Cl
