data_image0
_cell_length_a       11.0259
_cell_length_b       11.0259
_cell_length_c       21.3391
_cell_angle_alpha    90
_cell_angle_beta     90
_cell_angle_gamma    120

_symmetry_space_group_name_H-M    "P 1"
_symmetry_int_tables_number       1

loop_
  _symmetry_equiv_pos_as_xyz
  'x, y, z'

loop_
  _atom_site_label
  _atom_site_occupancy
  _atom_site_fract_x
  _atom_site_fract_y
  _atom_site_fract_z
  _atom_site_thermal_displace_type
  _atom_site_B_iso_or_equiv
  _atom_site_type_symbol
  C1       1.0000 0.79587  0.68335  0.09573  Biso   1.000  C
  C2       1.0000 0.79786  0.68479  0.16212  Biso   1.000  C
  C3       1.0000 0.73934  0.75746  0.19554  Biso   1.000  C
  C4       1.0000 0.73714  0.75487  0.06211  Biso   1.000  C
  C5       1.0000 0.63922  0.78018  0.09568  Biso   1.000  C
  C6       1.0000 0.64034  0.78244  0.16218  Biso   1.000  C
  C7       1.0000 0.51618  0.75688  0.19554  Biso   1.000  C
  C8       1.0000 0.51579  0.75429  0.06211  Biso   1.000  C
  C9       1.0000 0.38559  0.68232  0.09573  Biso   1.000  C
  C10      1.0000 0.38502  0.68375  0.16212  Biso   1.000  C
  C11      1.0000 0.26773  0.57430  0.19550  Biso   1.000  C
  C12      1.0000 0.26955  0.57318  0.06215  Biso   1.000  C
  C13      1.0000 0.18311  0.44559  0.09571  Biso   1.000  C
  C14      1.0000 0.18121  0.44558  0.16214  Biso   1.000  C
  C15      1.0000 0.13958  0.31698  0.19550  Biso   1.000  C
  C16      1.0000 0.14251  0.31811  0.06215  Biso   1.000  C
  C17      1.0000 0.14999  0.20929  0.09573  Biso   1.000  C
  C18      1.0000 0.14800  0.20786  0.16212  Biso   1.000  C
  C19      1.0000 0.20652  0.13518  0.19554  Biso   1.000  C
  C20      1.0000 0.20872  0.13778  0.06211  Biso   1.000  C
  C21      1.0000 0.30664  0.11247  0.09568  Biso   1.000  C
  C22      1.0000 0.30552  0.11021  0.16218  Biso   1.000  C
  C23      1.0000 0.42967  0.13577  0.19554  Biso   1.000  C
  C24      1.0000 0.43007  0.13836  0.06212  Biso   1.000  C
  C25      1.0000 0.56026  0.21033  0.09573  Biso   1.000  C
  C26      1.0000 0.56084  0.20890  0.16212  Biso   1.000  C
  C27      1.0000 0.67812  0.31834  0.19550  Biso   1.000  C
  C28      1.0000 0.67631  0.31946  0.06215  Biso   1.000  C
  C29      1.0000 0.76274  0.44706  0.09571  Biso   1.000  C
  C30      1.0000 0.76464  0.44706  0.16214  Biso   1.000  C
  C31      1.0000 0.80627  0.57566  0.19550  Biso   1.000  C
  C32      1.0000 0.80334  0.57453  0.06215  Biso   1.000  C
  C33      1.0000 0.79632  0.68370  0.29562  Biso   1.000  C
  C34      1.0000 0.79631  0.68370  0.36211  Biso   1.000  C
  C35      1.0000 0.73844  0.75640  0.39569  Biso   1.000  C
  C36      1.0000 0.73845  0.75641  0.26206  Biso   1.000  C
  C37      1.0000 0.63945  0.78064  0.29557  Biso   1.000  C
  C38      1.0000 0.63945  0.78065  0.36217  Biso   1.000  C
  C39      1.0000 0.51602  0.75581  0.39568  Biso   1.000  C
  C40      1.0000 0.51602  0.75582  0.26206  Biso   1.000  C
  C41      1.0000 0.38549  0.68265  0.29562  Biso   1.000  C
  C42      1.0000 0.38549  0.68265  0.36211  Biso   1.000  C
  C43      1.0000 0.26852  0.57383  0.39565  Biso   1.000  C
  C44      1.0000 0.26851  0.57385  0.26209  Biso   1.000  C
  C45      1.0000 0.18273  0.44558  0.29561  Biso   1.000  C
  C46      1.0000 0.18272  0.44558  0.36211  Biso   1.000  C
  C47      1.0000 0.14082  0.31743  0.39565  Biso   1.000  C
  C48      1.0000 0.14080  0.31743  0.26209  Biso   1.000  C
  C49      1.0000 0.14953  0.20893  0.29562  Biso   1.000  C
  C50      1.0000 0.14954  0.20893  0.36211  Biso   1.000  C
  C51      1.0000 0.20741  0.13623  0.39568  Biso   1.000  C
  C52      1.0000 0.20740  0.13623  0.26206  Biso   1.000  C
  C53      1.0000 0.30640  0.11199  0.29557  Biso   1.000  C
  C54      1.0000 0.30640  0.11198  0.36217  Biso   1.000  C
  C55      1.0000 0.42983  0.13682  0.39568  Biso   1.000  C
  C56      1.0000 0.42984  0.13682  0.26206  Biso   1.000  C
  C57      1.0000 0.56037  0.20998  0.29562  Biso   1.000  C
  C58      1.0000 0.56036  0.20998  0.36211  Biso   1.000  C
  C59      1.0000 0.67733  0.31880  0.39565  Biso   1.000  C
  C60      1.0000 0.67734  0.31879  0.26209  Biso   1.000  C
  C61      1.0000 0.76313  0.44706  0.29561  Biso   1.000  C
  C62      1.0000 0.76313  0.44706  0.36211  Biso   1.000  C
  C63      1.0000 0.80502  0.57520  0.39565  Biso   1.000  C
  C64      1.0000 0.80505  0.57521  0.26209  Biso   1.000  C
  C65      1.0000 0.79780  0.68474  0.49565  Biso   1.000  C
  C66      1.0000 0.79679  0.68402  0.56205  Biso   1.000  C
  C67      1.0000 0.73826  0.75617  0.59555  Biso   1.000  C
  C68      1.0000 0.73924  0.75735  0.46221  Biso   1.000  C
  C69      1.0000 0.64031  0.78237  0.49560  Biso   1.000  C
  C70      1.0000 0.63972  0.78120  0.56211  Biso   1.000  C
  C71      1.0000 0.51597  0.75558  0.59555  Biso   1.000  C
  C72      1.0000 0.51616  0.75676  0.46221  Biso   1.000  C
  C73      1.0000 0.38503  0.68369  0.49565  Biso   1.000  C
  C74      1.0000 0.38533  0.68297  0.56205  Biso   1.000  C
  C75      1.0000 0.26865  0.57371  0.59551  Biso   1.000  C
  C76      1.0000 0.26781  0.57424  0.46225  Biso   1.000  C
  C77      1.0000 0.18120  0.44558  0.49564  Biso   1.000  C
  C78      1.0000 0.18216  0.44558  0.56206  Biso   1.000  C
  C79      1.0000 0.14108  0.31757  0.59551  Biso   1.000  C
  C80      1.0000 0.13971  0.31703  0.46225  Biso   1.000  C
  C81      1.0000 0.14805  0.20790  0.49565  Biso   1.000  C
  C82      1.0000 0.14906  0.20862  0.56205  Biso   1.000  C
  C83      1.0000 0.20760  0.13648  0.59555  Biso   1.000  C
  C84      1.0000 0.20661  0.13529  0.46221  Biso   1.000  C
  C85      1.0000 0.30555  0.11027  0.49560  Biso   1.000  C
  C86      1.0000 0.30613  0.11145  0.56211  Biso   1.000  C
  C87      1.0000 0.42988  0.13706  0.59555  Biso   1.000  C
  C88      1.0000 0.42969  0.13588  0.46221  Biso   1.000  C
  C89      1.0000 0.56082  0.20895  0.49565  Biso   1.000  C
  C90      1.0000 0.56052  0.20967  0.56205  Biso   1.000  C
  C91      1.0000 0.67720  0.31893  0.59551  Biso   1.000  C
  C92      1.0000 0.67804  0.31840  0.46225  Biso   1.000  C
  C93      1.0000 0.76465  0.44706  0.49564  Biso   1.000  C
  C94      1.0000 0.76369  0.44706  0.56206  Biso   1.000  C
  C95      1.0000 0.80477  0.57508  0.59551  Biso   1.000  C
  C96      1.0000 0.80614  0.57560  0.46225  Biso   1.000  C
  C97      1.0000 0.79681  0.68403  0.69553  Biso   1.000  C
  C98      1.0000 0.79693  0.68412  0.76214  Biso   1.000  C
  C99      1.0000 0.73867  0.75663  0.79565  Biso   1.000  C
  C100     1.0000 0.73852  0.75646  0.66200  Biso   1.000  C
  C101     1.0000 0.63964  0.78103  0.69548  Biso   1.000  C
  C102     1.0000 0.63970  0.78114  0.76219  Biso   1.000  C
  C103     1.0000 0.51603  0.75605  0.79564  Biso   1.000  C
  C104     1.0000 0.51600  0.75588  0.66200  Biso   1.000  C
  C105     1.0000 0.38532  0.68297  0.69553  Biso   1.000  C
  C106     1.0000 0.38529  0.68306  0.76213  Biso   1.000  C
  C107     1.0000 0.26833  0.57396  0.79560  Biso   1.000  C
  C108     1.0000 0.26845  0.57388  0.66204  Biso   1.000  C
  C109     1.0000 0.18238  0.44558  0.69553  Biso   1.000  C
  C110     1.0000 0.18227  0.44557  0.76215  Biso   1.000  C
  C111     1.0000 0.14050  0.31730  0.79560  Biso   1.000  C
  C112     1.0000 0.14070  0.31739  0.66204  Biso   1.000  C
  C113     1.0000 0.14905  0.20861  0.69553  Biso   1.000  C
  C114     1.0000 0.14892  0.20852  0.76214  Biso   1.000  C
  C115     1.0000 0.20718  0.13600  0.79564  Biso   1.000  C
  C116     1.0000 0.20734  0.13618  0.66200  Biso   1.000  C
  C117     1.0000 0.30621  0.11162  0.69548  Biso   1.000  C
  C118     1.0000 0.30615  0.11149  0.76219  Biso   1.000  C
  C119     1.0000 0.42982  0.13658  0.79564  Biso   1.000  C
  C120     1.0000 0.42985  0.13677  0.66200  Biso   1.000  C
  C121     1.0000 0.56053  0.20967  0.69553  Biso   1.000  C
  C122     1.0000 0.56056  0.20957  0.76213  Biso   1.000  C
  C123     1.0000 0.67752  0.31867  0.79560  Biso   1.000  C
  C124     1.0000 0.67740  0.31876  0.66204  Biso   1.000  C
  C125     1.0000 0.76347  0.44706  0.69553  Biso   1.000  C
  C126     1.0000 0.76358  0.44706  0.76215  Biso   1.000  C
  C127     1.0000 0.80535  0.57533  0.79560  Biso   1.000  C
  C128     1.0000 0.80515  0.57525  0.66204  Biso   1.000  C
  C129     1.0000 0.79601  0.68345  0.89560  Biso   1.000  C
  C130     1.0000 0.79505  0.68275  0.96202  Biso   1.000  C
  C131     1.0000 0.73686  0.75453  0.99567  Biso   1.000  C
  C132     1.0000 0.73814  0.75602  0.86209  Biso   1.000  C
  C133     1.0000 0.63925  0.78025  0.89554  Biso   1.000  C
  C134     1.0000 0.63874  0.77922  0.96207  Biso   1.000  C
  C135     1.0000 0.51574  0.75395  0.99567  Biso   1.000  C
  C136     1.0000 0.51595  0.75543  0.86209  Biso   1.000  C
  C137     1.0000 0.38555  0.68241  0.89560  Biso   1.000  C
  C138     1.0000 0.38581  0.68172  0.96202  Biso   1.000  C
  C139     1.0000 0.26975  0.57306  0.99563  Biso   1.000  C
  C140     1.0000 0.26875  0.57367  0.86214  Biso   1.000  C
  C141     1.0000 0.18298  0.44558  0.89559  Biso   1.000  C
  C142     1.0000 0.18389  0.44559  0.96203  Biso   1.000  C
  C143     1.0000 0.14283  0.31823  0.99563  Biso   1.000  C
  C144     1.0000 0.14121  0.31759  0.86214  Biso   1.000  C
  C145     1.0000 0.14984  0.20918  0.89560  Biso   1.000  C
  C146     1.0000 0.15081  0.20988  0.96202  Biso   1.000  C
  C147     1.0000 0.20899  0.13811  0.99567  Biso   1.000  C
  C148     1.0000 0.20771  0.13661  0.86209  Biso   1.000  C
  C149     1.0000 0.30660  0.11238  0.89554  Biso   1.000  C
  C150     1.0000 0.30712  0.11342  0.96207  Biso   1.000  C
  C151     1.0000 0.43012  0.13869  0.99567  Biso   1.000  C
  C152     1.0000 0.42990  0.13719  0.86209  Biso   1.000  C
  C153     1.0000 0.56030  0.21022  0.89560  Biso   1.000  C
  C154     1.0000 0.56004  0.21092  0.96202  Biso   1.000  C
  C155     1.0000 0.67610  0.31957  0.99563  Biso   1.000  C
  C156     1.0000 0.67710  0.31896  0.86214  Biso   1.000  C
  C157     1.0000 0.76287  0.44705  0.89559  Biso   1.000  C
  C158     1.0000 0.76196  0.44705  0.96203  Biso   1.000  C
  C159     1.0000 0.80302  0.57441  0.99563  Biso   1.000  C
  C160     1.0000 0.80463  0.57503  0.86214  Biso   1.000  C
  I1       1.0000 0.47293  0.44633  0.20612  Biso   1.000  I
  I2       1.0000 0.47292  0.44632  0.44659  Biso   1.000  I
  I3       1.0000 0.47293  0.44632  0.72983  Biso   1.000  I
  Cl1      1.0000 0.47293  0.44633  0.32809  Biso   1.000  Cl
  Cl2      1.0000 0.47293  0.44633  0.61244  Biso   1.000  Cl
  Cl3      1.0000 0.47293  0.44632  0.84739  Biso   1.000  Cl
