data_image0
_cell_length_a       14.6448
_cell_length_b       14.6448
_cell_length_c       21.3495
_cell_angle_alpha    90
_cell_angle_beta     90
_cell_angle_gamma    120

_symmetry_space_group_name_H-M    "P 1"
_symmetry_int_tables_number       1

loop_
  _symmetry_equiv_pos_as_xyz
  'x, y, z'

loop_
  _atom_site_label
  _atom_site_occupancy
  _atom_site_fract_x
  _atom_site_fract_y
  _atom_site_fract_z
  _atom_site_thermal_displace_type
  _atom_site_B_iso_or_equiv
  _atom_site_type_symbol
  C1       1.0000 0.83563  0.40694  0.06479  Biso   1.000  C
  C2       1.0000 0.83566  0.40693  0.99833  Biso   1.000  C
  C3       1.0000 0.86468  0.50246  0.16482  Biso   1.000  C
  C4       1.0000 0.86475  0.50249  0.09835  Biso   1.000  C
  C5       1.0000 0.85595  0.58257  0.06478  Biso   1.000  C
  C6       1.0000 0.85596  0.58257  0.99832  Biso   1.000  C
  C7       1.0000 0.81056  0.63507  0.16481  Biso   1.000  C
  C8       1.0000 0.81060  0.63509  0.09834  Biso   1.000  C
  C9       1.0000 0.73542  0.65187  0.06478  Biso   1.000  C
  C10      1.0000 0.73541  0.65186  0.99832  Biso   1.000  C
  C11      1.0000 0.64195  0.63045  0.16479  Biso   1.000  C
  C12      1.0000 0.64194  0.63045  0.09834  Biso   1.000  C
  C13      1.0000 0.54440  0.57394  0.06478  Biso   1.000  C
  C14      1.0000 0.54439  0.57394  0.99833  Biso   1.000  C
  C15      1.0000 0.45779  0.49115  0.16481  Biso   1.000  C
  C16      1.0000 0.45773  0.49112  0.09835  Biso   1.000  C
  C17      1.0000 0.39512  0.39457  0.06479  Biso   1.000  C
  C18      1.0000 0.39510  0.39456  0.99833  Biso   1.000  C
  C19      1.0000 0.36608  0.29906  0.16482  Biso   1.000  C
  C20      1.0000 0.36599  0.29901  0.09836  Biso   1.000  C
  C21      1.0000 0.37477  0.21892  0.06479  Biso   1.000  C
  C22      1.0000 0.37475  0.21891  0.99832  Biso   1.000  C
  C23      1.0000 0.42021  0.16646  0.16481  Biso   1.000  C
  C24      1.0000 0.42014  0.16641  0.09835  Biso   1.000  C
  C25      1.0000 0.49531  0.14963  0.06478  Biso   1.000  C
  C26      1.0000 0.49530  0.14962  0.99833  Biso   1.000  C
  C27      1.0000 0.58880  0.17108  0.16480  Biso   1.000  C
  C28      1.0000 0.58879  0.17108  0.09834  Biso   1.000  C
  C29      1.0000 0.68632  0.22758  0.06478  Biso   1.000  C
  C30      1.0000 0.68634  0.22757  0.99833  Biso   1.000  C
  C31      1.0000 0.77296  0.31039  0.16480  Biso   1.000  C
  C32      1.0000 0.77301  0.31040  0.09835  Biso   1.000  C
  C33      1.0000 0.83550  0.40686  0.26482  Biso   1.000  C
  C34      1.0000 0.83560  0.40691  0.19836  Biso   1.000  C
  C35      1.0000 0.86448  0.50234  0.36482  Biso   1.000  C
  C36      1.0000 0.86461  0.50241  0.29836  Biso   1.000  C
  C37      1.0000 0.85584  0.58253  0.26483  Biso   1.000  C
  C38      1.0000 0.85594  0.58259  0.19837  Biso   1.000  C
  C39      1.0000 0.81044  0.63505  0.36482  Biso   1.000  C
  C40      1.0000 0.81054  0.63510  0.29836  Biso   1.000  C
  C41      1.0000 0.73538  0.65192  0.26481  Biso   1.000  C
  C42      1.0000 0.73544  0.65196  0.19836  Biso   1.000  C
  C43      1.0000 0.64196  0.63063  0.36479  Biso   1.000  C
  C44      1.0000 0.64196  0.63057  0.29835  Biso   1.000  C
  C45      1.0000 0.54447  0.57409  0.26481  Biso   1.000  C
  C46      1.0000 0.54443  0.57403  0.19836  Biso   1.000  C
  C47      1.0000 0.45789  0.49133  0.36480  Biso   1.000  C
  C48      1.0000 0.45783  0.49127  0.29835  Biso   1.000  C
  C49      1.0000 0.39530  0.39470  0.26483  Biso   1.000  C
  C50      1.0000 0.39517  0.39463  0.19837  Biso   1.000  C
  C51      1.0000 0.36629  0.29921  0.36482  Biso   1.000  C
  C52      1.0000 0.36619  0.29914  0.29837  Biso   1.000  C
  C53      1.0000 0.37497  0.21903  0.26483  Biso   1.000  C
  C54      1.0000 0.37483  0.21894  0.19837  Biso   1.000  C
  C55      1.0000 0.42037  0.16651  0.36481  Biso   1.000  C
  C56      1.0000 0.42027  0.16644  0.29837  Biso   1.000  C
  C57      1.0000 0.49538  0.14959  0.26482  Biso   1.000  C
  C58      1.0000 0.49532  0.14958  0.19837  Biso   1.000  C
  C59      1.0000 0.58884  0.17095  0.36479  Biso   1.000  C
  C60      1.0000 0.58881  0.17096  0.29835  Biso   1.000  C
  C61      1.0000 0.68629  0.22745  0.26480  Biso   1.000  C
  C62      1.0000 0.68632  0.22750  0.19836  Biso   1.000  C
  C63      1.0000 0.77289  0.31023  0.36479  Biso   1.000  C
  C64      1.0000 0.77295  0.31028  0.29834  Biso   1.000  C
  C65      1.0000 0.83542  0.40675  0.46478  Biso   1.000  C
  C66      1.0000 0.83544  0.40678  0.39832  Biso   1.000  C
  C67      1.0000 0.86448  0.50229  0.56475  Biso   1.000  C
  C68      1.0000 0.86443  0.50229  0.49830  Biso   1.000  C
  C69      1.0000 0.85567  0.58241  0.46479  Biso   1.000  C
  C70      1.0000 0.85573  0.58246  0.39834  Biso   1.000  C
  C71      1.0000 0.81037  0.63498  0.56476  Biso   1.000  C
  C72      1.0000 0.81037  0.63500  0.49831  Biso   1.000  C
  C73      1.0000 0.73533  0.65200  0.46478  Biso   1.000  C
  C74      1.0000 0.73536  0.65202  0.39833  Biso   1.000  C
  C75      1.0000 0.64192  0.63066  0.56475  Biso   1.000  C
  C76      1.0000 0.64194  0.63067  0.49831  Biso   1.000  C
  C77      1.0000 0.54449  0.57425  0.46477  Biso   1.000  C
  C78      1.0000 0.54449  0.57424  0.39832  Biso   1.000  C
  C79      1.0000 0.45786  0.49137  0.56475  Biso   1.000  C
  C80      1.0000 0.45788  0.49138  0.49830  Biso   1.000  C
  C81      1.0000 0.39536  0.39481  0.46478  Biso   1.000  C
  C82      1.0000 0.39533  0.39478  0.39833  Biso   1.000  C
  C83      1.0000 0.36634  0.29926  0.56475  Biso   1.000  C
  C84      1.0000 0.36637  0.29926  0.49830  Biso   1.000  C
  C85      1.0000 0.37515  0.21915  0.46479  Biso   1.000  C
  C86      1.0000 0.37508  0.21910  0.39834  Biso   1.000  C
  C87      1.0000 0.42047  0.16659  0.56476  Biso   1.000  C
  C88      1.0000 0.42046  0.16657  0.49831  Biso   1.000  C
  C89      1.0000 0.49546  0.14955  0.46478  Biso   1.000  C
  C90      1.0000 0.49543  0.14953  0.39833  Biso   1.000  C
  C91      1.0000 0.58888  0.17087  0.56475  Biso   1.000  C
  C92      1.0000 0.58887  0.17087  0.49831  Biso   1.000  C
  C93      1.0000 0.68632  0.22730  0.46476  Biso   1.000  C
  C94      1.0000 0.68630  0.22733  0.39832  Biso   1.000  C
  C95      1.0000 0.77295  0.31016  0.56475  Biso   1.000  C
  C96      1.0000 0.77291  0.31016  0.49829  Biso   1.000  C
  C97      1.0000 0.83558  0.40679  0.66473  Biso   1.000  C
  C98      1.0000 0.83548  0.40675  0.59827  Biso   1.000  C
  C99      1.0000 0.86463  0.50238  0.76472  Biso   1.000  C
  C100     1.0000 0.86453  0.50232  0.69826  Biso   1.000  C
  C101     1.0000 0.85573  0.58241  0.66473  Biso   1.000  C
  C102     1.0000 0.85566  0.58238  0.59827  Biso   1.000  C
  C103     1.0000 0.81044  0.63497  0.76472  Biso   1.000  C
  C104     1.0000 0.81035  0.63491  0.69826  Biso   1.000  C
  C105     1.0000 0.73532  0.65193  0.66472  Biso   1.000  C
  C106     1.0000 0.73529  0.65191  0.59828  Biso   1.000  C
  C107     1.0000 0.64190  0.63054  0.76472  Biso   1.000  C
  C108     1.0000 0.64189  0.63057  0.69827  Biso   1.000  C
  C109     1.0000 0.54441  0.57418  0.66472  Biso   1.000  C
  C110     1.0000 0.54447  0.57420  0.59828  Biso   1.000  C
  C111     1.0000 0.45771  0.49124  0.76472  Biso   1.000  C
  C112     1.0000 0.45780  0.49130  0.69826  Biso   1.000  C
  C113     1.0000 0.39524  0.39475  0.66472  Biso   1.000  C
  C114     1.0000 0.39534  0.39480  0.59827  Biso   1.000  C
  C115     1.0000 0.36613  0.29913  0.76471  Biso   1.000  C
  C116     1.0000 0.36627  0.29921  0.69825  Biso   1.000  C
  C117     1.0000 0.37508  0.21912  0.66472  Biso   1.000  C
  C118     1.0000 0.37517  0.21918  0.59827  Biso   1.000  C
  C119     1.0000 0.42031  0.16653  0.76471  Biso   1.000  C
  C120     1.0000 0.42044  0.16661  0.69826  Biso   1.000  C
  C121     1.0000 0.49547  0.14961  0.66473  Biso   1.000  C
  C122     1.0000 0.49552  0.14963  0.59828  Biso   1.000  C
  C123     1.0000 0.58885  0.17100  0.76473  Biso   1.000  C
  C124     1.0000 0.58888  0.17098  0.69828  Biso   1.000  C
  C125     1.0000 0.68638  0.22734  0.66473  Biso   1.000  C
  C126     1.0000 0.68635  0.22730  0.59829  Biso   1.000  C
  C127     1.0000 0.77305  0.31029  0.76473  Biso   1.000  C
  C128     1.0000 0.77299  0.31024  0.69827  Biso   1.000  C
  C129     1.0000 0.83567  0.40689  0.86474  Biso   1.000  C
  C130     1.0000 0.83559  0.40685  0.79828  Biso   1.000  C
  C131     1.0000 0.86476  0.50248  0.96476  Biso   1.000  C
  C132     1.0000 0.86472  0.50244  0.89829  Biso   1.000  C
  C133     1.0000 0.85589  0.58250  0.86473  Biso   1.000  C
  C134     1.0000 0.85578  0.58244  0.79826  Biso   1.000  C
  C135     1.0000 0.81055  0.63502  0.96475  Biso   1.000  C
  C136     1.0000 0.81050  0.63497  0.89829  Biso   1.000  C
  C137     1.0000 0.73537  0.65185  0.86474  Biso   1.000  C
  C138     1.0000 0.73533  0.65184  0.79828  Biso   1.000  C
  C139     1.0000 0.64192  0.63041  0.96476  Biso   1.000  C
  C140     1.0000 0.64191  0.63042  0.89831  Biso   1.000  C
  C141     1.0000 0.54436  0.57400  0.86475  Biso   1.000  C
  C142     1.0000 0.54437  0.57405  0.79829  Biso   1.000  C
  C143     1.0000 0.45771  0.49110  0.96477  Biso   1.000  C
  C144     1.0000 0.45772  0.49112  0.89831  Biso   1.000  C
  C145     1.0000 0.39511  0.39460  0.86473  Biso   1.000  C
  C146     1.0000 0.39518  0.39466  0.79827  Biso   1.000  C
  C147     1.0000 0.36599  0.29902  0.96476  Biso   1.000  C
  C148     1.0000 0.36604  0.29905  0.89829  Biso   1.000  C
  C149     1.0000 0.37484  0.21897  0.86472  Biso   1.000  C
  C150     1.0000 0.37495  0.21905  0.79826  Biso   1.000  C
  C151     1.0000 0.42015  0.16643  0.96475  Biso   1.000  C
  C152     1.0000 0.42020  0.16647  0.89829  Biso   1.000  C
  C153     1.0000 0.49535  0.14962  0.86474  Biso   1.000  C
  C154     1.0000 0.49541  0.14966  0.79828  Biso   1.000  C
  C155     1.0000 0.58880  0.17109  0.96477  Biso   1.000  C
  C156     1.0000 0.58882  0.17108  0.89832  Biso   1.000  C
  C157     1.0000 0.68637  0.22750  0.86476  Biso   1.000  C
  C158     1.0000 0.68636  0.22749  0.79830  Biso   1.000  C
  C159     1.0000 0.77304  0.31039  0.96477  Biso   1.000  C
  C160     1.0000 0.77304  0.31036  0.89831  Biso   1.000  C
  I1       1.0000 0.39822  0.80005  0.34072  Biso   1.000  I
  I2       1.0000 0.39222  0.79328  0.47555  Biso   1.000  I
  I3       1.0000 0.40007  0.79301  0.61066  Biso   1.000  I
  Cl1      1.0000 0.68534  0.93390  0.37245  Biso   1.000  Cl
  Cl2      1.0000 0.67639  0.92557  0.47831  Biso   1.000  Cl
  Cl3      1.0000 0.67566  0.92096  0.58541  Biso   1.000  Cl
