data_image0
_cell_length_a       14.6448
_cell_length_b       14.6448
_cell_length_c       21.3495
_cell_angle_alpha    90
_cell_angle_beta     90
_cell_angle_gamma    120

_symmetry_space_group_name_H-M    "P 1"
_symmetry_int_tables_number       1

loop_
  _symmetry_equiv_pos_as_xyz
  'x, y, z'

loop_
  _atom_site_label
  _atom_site_occupancy
  _atom_site_fract_x
  _atom_site_fract_y
  _atom_site_fract_z
  _atom_site_thermal_displace_type
  _atom_site_B_iso_or_equiv
  _atom_site_type_symbol
  C1       1.0000 0.84846  0.41352  0.06686  Biso   1.000  C
  C2       1.0000 0.84836  0.41354  0.00061  Biso   1.000  C
  C3       1.0000 0.88196  0.51070  0.16714  Biso   1.000  C
  C4       1.0000 0.88195  0.51069  0.10050  Biso   1.000  C
  C5       1.0000 0.87091  0.59013  0.06687  Biso   1.000  C
  C6       1.0000 0.87076  0.59001  0.00061  Biso   1.000  C
  C7       1.0000 0.82399  0.64079  0.16717  Biso   1.000  C
  C8       1.0000 0.82400  0.64079  0.10048  Biso   1.000  C
  C9       1.0000 0.74958  0.65872  0.06704  Biso   1.000  C
  C10      1.0000 0.74970  0.65895  0.00059  Biso   1.000  C
  C11      1.0000 0.65646  0.63872  0.16701  Biso   1.000  C
  C12      1.0000 0.65648  0.63872  0.10063  Biso   1.000  C
  C13      1.0000 0.55882  0.58357  0.06704  Biso   1.000  C
  C14      1.0000 0.55889  0.58362  0.00059  Biso   1.000  C
  C15      1.0000 0.47133  0.50166  0.16701  Biso   1.000  C
  C16      1.0000 0.47134  0.50166  0.10062  Biso   1.000  C
  C17      1.0000 0.40755  0.40537  0.06703  Biso   1.000  C
  C18      1.0000 0.40761  0.40540  0.00062  Biso   1.000  C
  C19      1.0000 0.37729  0.30953  0.16704  Biso   1.000  C
  C20      1.0000 0.37728  0.30953  0.10059  Biso   1.000  C
  C21      1.0000 0.38514  0.22887  0.06702  Biso   1.000  C
  C22      1.0000 0.38520  0.22891  0.00062  Biso   1.000  C
  C23      1.0000 0.43007  0.17588  0.16702  Biso   1.000  C
  C24      1.0000 0.43007  0.17588  0.10062  Biso   1.000  C
  C25      1.0000 0.50506  0.15877  0.06704  Biso   1.000  C
  C26      1.0000 0.50512  0.15880  0.00059  Biso   1.000  C
  C27      1.0000 0.59838  0.17972  0.16701  Biso   1.000  C
  C28      1.0000 0.59838  0.17972  0.10063  Biso   1.000  C
  C29      1.0000 0.69603  0.23576  0.06703  Biso   1.000  C
  C30      1.0000 0.69610  0.23561  0.00059  Biso   1.000  C
  C31      1.0000 0.78314  0.31808  0.16715  Biso   1.000  C
  C32      1.0000 0.78314  0.31808  0.10048  Biso   1.000  C
  C33      1.0000 0.84835  0.41355  0.26704  Biso   1.000  C
  C34      1.0000 0.84846  0.41352  0.20078  Biso   1.000  C
  C35      1.0000 0.88006  0.50997  0.36682  Biso   1.000  C
  C36      1.0000 0.87995  0.50991  0.30073  Biso   1.000  C
  C37      1.0000 0.87073  0.59001  0.26704  Biso   1.000  C
  C38      1.0000 0.87090  0.59014  0.20078  Biso   1.000  C
  C39      1.0000 0.82446  0.64163  0.36706  Biso   1.000  C
  C40      1.0000 0.82443  0.64163  0.30054  Biso   1.000  C
  C41      1.0000 0.74964  0.65893  0.26705  Biso   1.000  C
  C42      1.0000 0.74955  0.65871  0.20061  Biso   1.000  C
  C43      1.0000 0.65653  0.63895  0.36702  Biso   1.000  C
  C44      1.0000 0.65652  0.63898  0.30064  Biso   1.000  C
  C45      1.0000 0.55883  0.58362  0.26705  Biso   1.000  C
  C46      1.0000 0.55879  0.58358  0.20059  Biso   1.000  C
  C47      1.0000 0.47139  0.50167  0.36703  Biso   1.000  C
  C48      1.0000 0.47139  0.50169  0.30062  Biso   1.000  C
  C49      1.0000 0.40757  0.40538  0.26701  Biso   1.000  C
  C50      1.0000 0.40753  0.40537  0.20060  Biso   1.000  C
  C51      1.0000 0.37741  0.30957  0.36704  Biso   1.000  C
  C52      1.0000 0.37743  0.30959  0.30058  Biso   1.000  C
  C53      1.0000 0.38520  0.22890  0.26701  Biso   1.000  C
  C54      1.0000 0.38515  0.22887  0.20061  Biso   1.000  C
  C55      1.0000 0.43020  0.17595  0.36702  Biso   1.000  C
  C56      1.0000 0.43019  0.17595  0.30062  Biso   1.000  C
  C57      1.0000 0.50511  0.15877  0.26704  Biso   1.000  C
  C58      1.0000 0.50506  0.15876  0.20060  Biso   1.000  C
  C59      1.0000 0.59844  0.17954  0.36701  Biso   1.000  C
  C60      1.0000 0.59841  0.17952  0.30064  Biso   1.000  C
  C61      1.0000 0.69610  0.23560  0.26705  Biso   1.000  C
  C62      1.0000 0.69603  0.23576  0.20061  Biso   1.000  C
  C63      1.0000 0.78345  0.31760  0.36706  Biso   1.000  C
  C64      1.0000 0.78343  0.31756  0.30054  Biso   1.000  C
  C65      1.0000 0.84868  0.41362  0.46677  Biso   1.000  C
  C66      1.0000 0.84845  0.41361  0.40053  Biso   1.000  C
  C67      1.0000 0.88271  0.51103  0.56701  Biso   1.000  C
  C68      1.0000 0.88275  0.51104  0.50043  Biso   1.000  C
  C69      1.0000 0.87120  0.59030  0.46677  Biso   1.000  C
  C70      1.0000 0.87087  0.59008  0.40053  Biso   1.000  C
  C71      1.0000 0.82426  0.64064  0.56711  Biso   1.000  C
  C72      1.0000 0.82419  0.64074  0.50041  Biso   1.000  C
  C73      1.0000 0.74962  0.65856  0.46703  Biso   1.000  C
  C74      1.0000 0.74968  0.65888  0.40059  Biso   1.000  C
  C75      1.0000 0.65656  0.63833  0.56701  Biso   1.000  C
  C76      1.0000 0.65654  0.63849  0.50064  Biso   1.000  C
  C77      1.0000 0.55882  0.58345  0.46708  Biso   1.000  C
  C78      1.0000 0.55884  0.58356  0.40062  Biso   1.000  C
  C79      1.0000 0.47134  0.50150  0.56702  Biso   1.000  C
  C80      1.0000 0.47135  0.50155  0.50064  Biso   1.000  C
  C81      1.0000 0.40748  0.40530  0.46702  Biso   1.000  C
  C82      1.0000 0.40754  0.40535  0.40062  Biso   1.000  C
  C83      1.0000 0.37717  0.30944  0.56704  Biso   1.000  C
  C84      1.0000 0.37725  0.30948  0.50058  Biso   1.000  C
  C85      1.0000 0.38512  0.22884  0.46701  Biso   1.000  C
  C86      1.0000 0.38519  0.22887  0.40061  Biso   1.000  C
  C87      1.0000 0.43011  0.17594  0.56702  Biso   1.000  C
  C88      1.0000 0.43014  0.17595  0.50062  Biso   1.000  C
  C89      1.0000 0.50515  0.15888  0.46705  Biso   1.000  C
  C90      1.0000 0.50515  0.15881  0.40061  Biso   1.000  C
  C91      1.0000 0.59859  0.18014  0.56701  Biso   1.000  C
  C92      1.0000 0.59855  0.17997  0.50064  Biso   1.000  C
  C93      1.0000 0.69616  0.23595  0.46702  Biso   1.000  C
  C94      1.0000 0.69616  0.23567  0.40059  Biso   1.000  C
  C95      1.0000 0.78343  0.31851  0.56712  Biso   1.000  C
  C96      1.0000 0.78334  0.31833  0.50043  Biso   1.000  C
  C97      1.0000 0.84930  0.41397  0.66694  Biso   1.000  C
  C98      1.0000 0.84928  0.41397  0.60069  Biso   1.000  C
  C99      1.0000 0.88279  0.51106  0.76720  Biso   1.000  C
  C100     1.0000 0.88280  0.51106  0.70062  Biso   1.000  C
  C101     1.0000 0.87185  0.59049  0.66693  Biso   1.000  C
  C102     1.0000 0.87183  0.59047  0.60068  Biso   1.000  C
  C103     1.0000 0.82425  0.64076  0.76721  Biso   1.000  C
  C104     1.0000 0.82430  0.64065  0.70051  Biso   1.000  C
  C105     1.0000 0.74965  0.65810  0.66704  Biso   1.000  C
  C106     1.0000 0.74964  0.65810  0.60058  Biso   1.000  C
  C107     1.0000 0.65659  0.63850  0.76699  Biso   1.000  C
  C108     1.0000 0.65659  0.63833  0.70062  Biso   1.000  C
  C109     1.0000 0.55892  0.58323  0.66705  Biso   1.000  C
  C110     1.0000 0.55891  0.58323  0.60059  Biso   1.000  C
  C111     1.0000 0.47138  0.50157  0.76700  Biso   1.000  C
  C112     1.0000 0.47134  0.50151  0.70061  Biso   1.000  C
  C113     1.0000 0.40742  0.40525  0.66702  Biso   1.000  C
  C114     1.0000 0.40742  0.40524  0.60062  Biso   1.000  C
  C115     1.0000 0.37723  0.30950  0.76705  Biso   1.000  C
  C116     1.0000 0.37716  0.30945  0.70059  Biso   1.000  C
  C117     1.0000 0.38500  0.22879  0.66702  Biso   1.000  C
  C118     1.0000 0.38501  0.22878  0.60062  Biso   1.000  C
  C119     1.0000 0.43015  0.17599  0.76702  Biso   1.000  C
  C120     1.0000 0.43011  0.17597  0.70062  Biso   1.000  C
  C121     1.0000 0.50525  0.15913  0.66704  Biso   1.000  C
  C122     1.0000 0.50525  0.15911  0.60060  Biso   1.000  C
  C123     1.0000 0.59856  0.18003  0.76700  Biso   1.000  C
  C124     1.0000 0.59859  0.18018  0.70063  Biso   1.000  C
  C125     1.0000 0.69626  0.23648  0.66705  Biso   1.000  C
  C126     1.0000 0.69626  0.23646  0.60059  Biso   1.000  C
  C127     1.0000 0.78335  0.31837  0.76720  Biso   1.000  C
  C128     1.0000 0.78344  0.31853  0.70052  Biso   1.000  C
  C129     1.0000 0.84851  0.41363  0.86711  Biso   1.000  C
  C130     1.0000 0.84874  0.41366  0.80086  Biso   1.000  C
  C131     1.0000 0.87997  0.50991  0.96691  Biso   1.000  C
  C132     1.0000 0.88012  0.50998  0.90082  Biso   1.000  C
  C133     1.0000 0.87097  0.59012  0.86711  Biso   1.000  C
  C134     1.0000 0.87130  0.59034  0.80087  Biso   1.000  C
  C135     1.0000 0.82449  0.64164  0.96711  Biso   1.000  C
  C136     1.0000 0.82453  0.64165  0.90058  Biso   1.000  C
  C137     1.0000 0.74975  0.65888  0.86705  Biso   1.000  C
  C138     1.0000 0.74969  0.65857  0.80060  Biso   1.000  C
  C139     1.0000 0.65658  0.63899  0.96699  Biso   1.000  C
  C140     1.0000 0.65660  0.63895  0.90061  Biso   1.000  C
  C141     1.0000 0.55891  0.58357  0.86701  Biso   1.000  C
  C142     1.0000 0.55889  0.58346  0.80056  Biso   1.000  C
  C143     1.0000 0.47145  0.50170  0.96701  Biso   1.000  C
  C144     1.0000 0.47144  0.50170  0.90060  Biso   1.000  C
  C145     1.0000 0.40756  0.40537  0.86701  Biso   1.000  C
  C146     1.0000 0.40749  0.40533  0.80061  Biso   1.000  C
  C147     1.0000 0.37744  0.30961  0.96705  Biso   1.000  C
  C148     1.0000 0.37740  0.30959  0.90059  Biso   1.000  C
  C149     1.0000 0.38517  0.22890  0.86702  Biso   1.000  C
  C150     1.0000 0.38510  0.22886  0.80062  Biso   1.000  C
  C151     1.0000 0.43021  0.17599  0.96701  Biso   1.000  C
  C152     1.0000 0.43021  0.17600  0.90061  Biso   1.000  C
  C153     1.0000 0.50517  0.15888  0.86702  Biso   1.000  C
  C154     1.0000 0.50517  0.15895  0.80058  Biso   1.000  C
  C155     1.0000 0.59842  0.17954  0.96699  Biso   1.000  C
  C156     1.0000 0.59845  0.17959  0.90062  Biso   1.000  C
  C157     1.0000 0.69617  0.23573  0.86705  Biso   1.000  C
  C158     1.0000 0.69617  0.23601  0.80061  Biso   1.000  C
  C159     1.0000 0.78344  0.31756  0.96710  Biso   1.000  C
  C160     1.0000 0.78348  0.31762  0.90058  Biso   1.000  C
  I1       1.0000 0.11133  0.59834  0.13398  Biso   1.000  I
  I2       1.0000 0.11314  0.59687  0.52143  Biso   1.000  I
  I3       1.0000 0.11300  0.59604  0.74472  Biso   1.000  I
  Cl1      1.0000 0.29950  0.66836  0.13420  Biso   1.000  Cl
  Cl2      1.0000 0.30007  0.66432  0.51384  Biso   1.000  Cl
  Cl3      1.0000 0.29989  0.66272  0.75154  Biso   1.000  Cl
