data_image0
_cell_length_a       14.6448
_cell_length_b       14.6448
_cell_length_c       21.3495
_cell_angle_alpha    90
_cell_angle_beta     90
_cell_angle_gamma    120

_symmetry_space_group_name_H-M    "P 1"
_symmetry_int_tables_number       1

loop_
  _symmetry_equiv_pos_as_xyz
  'x, y, z'

loop_
  _atom_site_label
  _atom_site_occupancy
  _atom_site_fract_x
  _atom_site_fract_y
  _atom_site_fract_z
  _atom_site_thermal_displace_type
  _atom_site_B_iso_or_equiv
  _atom_site_type_symbol
  C1       1.0000 0.82956  0.38182  0.06468  Biso   1.000  C
  C2       1.0000 0.82960  0.38182  0.99822  Biso   1.000  C
  C3       1.0000 0.86068  0.47781  0.16470  Biso   1.000  C
  C4       1.0000 0.86079  0.47783  0.09824  Biso   1.000  C
  C5       1.0000 0.85409  0.55908  0.06468  Biso   1.000  C
  C6       1.0000 0.85411  0.55909  0.99823  Biso   1.000  C
  C7       1.0000 0.81047  0.61319  0.16469  Biso   1.000  C
  C8       1.0000 0.81047  0.61318  0.09825  Biso   1.000  C
  C9       1.0000 0.73657  0.63185  0.06468  Biso   1.000  C
  C10      1.0000 0.73656  0.63186  0.99822  Biso   1.000  C
  C11      1.0000 0.64371  0.61237  0.16468  Biso   1.000  C
  C12      1.0000 0.64369  0.61237  0.09822  Biso   1.000  C
  C13      1.0000 0.54597  0.55759  0.06467  Biso   1.000  C
  C14      1.0000 0.54595  0.55759  0.99821  Biso   1.000  C
  C15      1.0000 0.45828  0.47600  0.16468  Biso   1.000  C
  C16      1.0000 0.45825  0.47599  0.09822  Biso   1.000  C
  C17      1.0000 0.39386  0.37985  0.06468  Biso   1.000  C
  C18      1.0000 0.39383  0.37985  0.99822  Biso   1.000  C
  C19      1.0000 0.36273  0.28385  0.16470  Biso   1.000  C
  C20      1.0000 0.36264  0.28384  0.09824  Biso   1.000  C
  C21      1.0000 0.36934  0.20258  0.06468  Biso   1.000  C
  C22      1.0000 0.36932  0.20257  0.99823  Biso   1.000  C
  C23      1.0000 0.41296  0.14846  0.16469  Biso   1.000  C
  C24      1.0000 0.41298  0.14848  0.09825  Biso   1.000  C
  C25      1.0000 0.48687  0.12982  0.06468  Biso   1.000  C
  C26      1.0000 0.48688  0.12982  0.99822  Biso   1.000  C
  C27      1.0000 0.57971  0.14928  0.16468  Biso   1.000  C
  C28      1.0000 0.57974  0.14928  0.09822  Biso   1.000  C
  C29      1.0000 0.67746  0.20406  0.06467  Biso   1.000  C
  C30      1.0000 0.67749  0.20407  0.99821  Biso   1.000  C
  C31      1.0000 0.76514  0.28566  0.16468  Biso   1.000  C
  C32      1.0000 0.76517  0.28567  0.09822  Biso   1.000  C
  C33      1.0000 0.82947  0.38180  0.26468  Biso   1.000  C
  C34      1.0000 0.82952  0.38179  0.19823  Biso   1.000  C
  C35      1.0000 0.86066  0.47782  0.36465  Biso   1.000  C
  C36      1.0000 0.86061  0.47780  0.29820  Biso   1.000  C
  C37      1.0000 0.85392  0.55900  0.26467  Biso   1.000  C
  C38      1.0000 0.85394  0.55901  0.19824  Biso   1.000  C
  C39      1.0000 0.81045  0.61321  0.36464  Biso   1.000  C
  C40      1.0000 0.81047  0.61322  0.29820  Biso   1.000  C
  C41      1.0000 0.73660  0.63191  0.26467  Biso   1.000  C
  C42      1.0000 0.73660  0.63191  0.19822  Biso   1.000  C
  C43      1.0000 0.64372  0.61246  0.36466  Biso   1.000  C
  C44      1.0000 0.64373  0.61245  0.29820  Biso   1.000  C
  C45      1.0000 0.54598  0.55767  0.26467  Biso   1.000  C
  C46      1.0000 0.54597  0.55766  0.19822  Biso   1.000  C
  C47      1.0000 0.45831  0.47603  0.36467  Biso   1.000  C
  C48      1.0000 0.45829  0.47603  0.29821  Biso   1.000  C
  C49      1.0000 0.39393  0.37989  0.26468  Biso   1.000  C
  C50      1.0000 0.39390  0.37988  0.19823  Biso   1.000  C
  C51      1.0000 0.36275  0.28386  0.36467  Biso   1.000  C
  C52      1.0000 0.36276  0.28386  0.29821  Biso   1.000  C
  C53      1.0000 0.36946  0.20262  0.26468  Biso   1.000  C
  C54      1.0000 0.36942  0.20261  0.19824  Biso   1.000  C
  C55      1.0000 0.41295  0.14842  0.36467  Biso   1.000  C
  C56      1.0000 0.41292  0.14841  0.29822  Biso   1.000  C
  C57      1.0000 0.48681  0.12973  0.26468  Biso   1.000  C
  C58      1.0000 0.48682  0.12974  0.19822  Biso   1.000  C
  C59      1.0000 0.57970  0.14927  0.36468  Biso   1.000  C
  C60      1.0000 0.57968  0.14924  0.29822  Biso   1.000  C
  C61      1.0000 0.67742  0.20399  0.26468  Biso   1.000  C
  C62      1.0000 0.67744  0.20400  0.19822  Biso   1.000  C
  C63      1.0000 0.76514  0.28566  0.36467  Biso   1.000  C
  C64      1.0000 0.76514  0.28564  0.29822  Biso   1.000  C
  C65      1.0000 0.82953  0.38185  0.46465  Biso   1.000  C
  C66      1.0000 0.82951  0.38184  0.39819  Biso   1.000  C
  C67      1.0000 0.86073  0.47786  0.56465  Biso   1.000  C
  C68      1.0000 0.86072  0.47785  0.49819  Biso   1.000  C
  C69      1.0000 0.85403  0.55909  0.46464  Biso   1.000  C
  C70      1.0000 0.85402  0.55908  0.39819  Biso   1.000  C
  C71      1.0000 0.81045  0.61319  0.56466  Biso   1.000  C
  C72      1.0000 0.81046  0.61321  0.49821  Biso   1.000  C
  C73      1.0000 0.73660  0.63195  0.46466  Biso   1.000  C
  C74      1.0000 0.73661  0.63195  0.39819  Biso   1.000  C
  C75      1.0000 0.64371  0.61243  0.56467  Biso   1.000  C
  C76      1.0000 0.64372  0.61244  0.49821  Biso   1.000  C
  C77      1.0000 0.54599  0.55767  0.46467  Biso   1.000  C
  C78      1.0000 0.54600  0.55767  0.39820  Biso   1.000  C
  C79      1.0000 0.45828  0.47605  0.56466  Biso   1.000  C
  C80      1.0000 0.45830  0.47604  0.49820  Biso   1.000  C
  C81      1.0000 0.39395  0.37989  0.46467  Biso   1.000  C
  C82      1.0000 0.39395  0.37988  0.39821  Biso   1.000  C
  C83      1.0000 0.36276  0.28390  0.56467  Biso   1.000  C
  C84      1.0000 0.36274  0.28388  0.49821  Biso   1.000  C
  C85      1.0000 0.36942  0.20260  0.46467  Biso   1.000  C
  C86      1.0000 0.36939  0.20258  0.39822  Biso   1.000  C
  C87      1.0000 0.41302  0.14851  0.56467  Biso   1.000  C
  C88      1.0000 0.41301  0.14848  0.49823  Biso   1.000  C
  C89      1.0000 0.48689  0.12982  0.46468  Biso   1.000  C
  C90      1.0000 0.48686  0.12980  0.39822  Biso   1.000  C
  C91      1.0000 0.57975  0.14934  0.56467  Biso   1.000  C
  C92      1.0000 0.57974  0.14931  0.49821  Biso   1.000  C
  C93      1.0000 0.67746  0.20404  0.46467  Biso   1.000  C
  C94      1.0000 0.67744  0.20402  0.39821  Biso   1.000  C
  C95      1.0000 0.76522  0.28570  0.56465  Biso   1.000  C
  C96      1.0000 0.76519  0.28570  0.49819  Biso   1.000  C
  C97      1.0000 0.82962  0.38185  0.66464  Biso   1.000  C
  C98      1.0000 0.82959  0.38185  0.59818  Biso   1.000  C
  C99      1.0000 0.86085  0.47786  0.76463  Biso   1.000  C
  C100     1.0000 0.86080  0.47786  0.69818  Biso   1.000  C
  C101     1.0000 0.85401  0.55907  0.66465  Biso   1.000  C
  C102     1.0000 0.85402  0.55907  0.59820  Biso   1.000  C
  C103     1.0000 0.81039  0.61310  0.76464  Biso   1.000  C
  C104     1.0000 0.81037  0.61309  0.69820  Biso   1.000  C
  C105     1.0000 0.73657  0.63188  0.66467  Biso   1.000  C
  C106     1.0000 0.73658  0.63191  0.59822  Biso   1.000  C
  C107     1.0000 0.64368  0.61239  0.76465  Biso   1.000  C
  C108     1.0000 0.64369  0.61240  0.69820  Biso   1.000  C
  C109     1.0000 0.54596  0.55766  0.66466  Biso   1.000  C
  C110     1.0000 0.54597  0.55767  0.59820  Biso   1.000  C
  C111     1.0000 0.45822  0.47600  0.76465  Biso   1.000  C
  C112     1.0000 0.45825  0.47602  0.69820  Biso   1.000  C
  C113     1.0000 0.39386  0.37989  0.66465  Biso   1.000  C
  C114     1.0000 0.39391  0.37991  0.59820  Biso   1.000  C
  C115     1.0000 0.36260  0.28382  0.76464  Biso   1.000  C
  C116     1.0000 0.36269  0.28386  0.69819  Biso   1.000  C
  C117     1.0000 0.36942  0.20265  0.66465  Biso   1.000  C
  C118     1.0000 0.36950  0.20268  0.59821  Biso   1.000  C
  C119     1.0000 0.41295  0.14849  0.76463  Biso   1.000  C
  C120     1.0000 0.41297  0.14850  0.69819  Biso   1.000  C
  C121     1.0000 0.48691  0.12990  0.66465  Biso   1.000  C
  C122     1.0000 0.48692  0.12988  0.59821  Biso   1.000  C
  C123     1.0000 0.57977  0.14936  0.76464  Biso   1.000  C
  C124     1.0000 0.57977  0.14939  0.69819  Biso   1.000  C
  C125     1.0000 0.67751  0.20407  0.66464  Biso   1.000  C
  C126     1.0000 0.67749  0.20406  0.59819  Biso   1.000  C
  C127     1.0000 0.76524  0.28570  0.76464  Biso   1.000  C
  C128     1.0000 0.76523  0.28571  0.69818  Biso   1.000  C
  C129     1.0000 0.82963  0.38184  0.86464  Biso   1.000  C
  C130     1.0000 0.82961  0.38185  0.79818  Biso   1.000  C
  C131     1.0000 0.86083  0.47784  0.96466  Biso   1.000  C
  C132     1.0000 0.86082  0.47785  0.89820  Biso   1.000  C
  C133     1.0000 0.85411  0.55910  0.86463  Biso   1.000  C
  C134     1.0000 0.85406  0.55908  0.79818  Biso   1.000  C
  C135     1.0000 0.81046  0.61317  0.96466  Biso   1.000  C
  C136     1.0000 0.81045  0.61316  0.89820  Biso   1.000  C
  C137     1.0000 0.73656  0.63186  0.86464  Biso   1.000  C
  C138     1.0000 0.73655  0.63182  0.79819  Biso   1.000  C
  C139     1.0000 0.64368  0.61234  0.96466  Biso   1.000  C
  C140     1.0000 0.64368  0.61233  0.89821  Biso   1.000  C
  C141     1.0000 0.54594  0.55759  0.86466  Biso   1.000  C
  C142     1.0000 0.54595  0.55759  0.79820  Biso   1.000  C
  C143     1.0000 0.45823  0.47597  0.96466  Biso   1.000  C
  C144     1.0000 0.45823  0.47596  0.89820  Biso   1.000  C
  C145     1.0000 0.39380  0.37984  0.86465  Biso   1.000  C
  C146     1.0000 0.39383  0.37984  0.79819  Biso   1.000  C
  C147     1.0000 0.36261  0.28383  0.96466  Biso   1.000  C
  C148     1.0000 0.36260  0.28383  0.89820  Biso   1.000  C
  C149     1.0000 0.36929  0.20256  0.86463  Biso   1.000  C
  C150     1.0000 0.36931  0.20257  0.79818  Biso   1.000  C
  C151     1.0000 0.41296  0.14848  0.96466  Biso   1.000  C
  C152     1.0000 0.41296  0.14849  0.89820  Biso   1.000  C
  C153     1.0000 0.48688  0.12983  0.86464  Biso   1.000  C
  C154     1.0000 0.48688  0.12986  0.79818  Biso   1.000  C
  C155     1.0000 0.57976  0.14934  0.96466  Biso   1.000  C
  C156     1.0000 0.57977  0.14936  0.89820  Biso   1.000  C
  C157     1.0000 0.67750  0.20409  0.86465  Biso   1.000  C
  C158     1.0000 0.67749  0.20411  0.79819  Biso   1.000  C
  C159     1.0000 0.76521  0.28570  0.96466  Biso   1.000  C
  C160     1.0000 0.76521  0.28571  0.89820  Biso   1.000  C
  I1       1.0000 0.10235  0.87950  0.22013  Biso   1.000  I
  I2       1.0000 0.20249  0.80945  0.43274  Biso   1.000  I
  I3       1.0000 0.15530  0.86098  0.63407  Biso   1.000  I
  Cl1      1.0000 0.14072  0.77661  0.31918  Biso   1.000  Cl
  Cl2      1.0000 0.26785  0.81897  0.54928  Biso   1.000  Cl
  Cl3      1.0000 0.06228  0.90168  0.71591  Biso   1.000  Cl
