data_image0
_cell_length_a       14.6448
_cell_length_b       14.6448
_cell_length_c       21.3495
_cell_angle_alpha    90
_cell_angle_beta     90
_cell_angle_gamma    120

_symmetry_space_group_name_H-M    "P 1"
_symmetry_int_tables_number       1

loop_
  _symmetry_equiv_pos_as_xyz
  'x, y, z'

loop_
  _atom_site_label
  _atom_site_occupancy
  _atom_site_fract_x
  _atom_site_fract_y
  _atom_site_fract_z
  _atom_site_thermal_displace_type
  _atom_site_B_iso_or_equiv
  _atom_site_type_symbol
  C1       1.0000 0.83467  0.40692  0.06617  Biso   1.000  C
  C2       1.0000 0.83469  0.40689  0.99973  Biso   1.000  C
  C3       1.0000 0.86562  0.50279  0.16615  Biso   1.000  C
  C4       1.0000 0.86561  0.50277  0.09970  Biso   1.000  C
  C5       1.0000 0.85855  0.58381  0.06618  Biso   1.000  C
  C6       1.0000 0.85853  0.58377  0.99973  Biso   1.000  C
  C7       1.0000 0.81461  0.63768  0.16619  Biso   1.000  C
  C8       1.0000 0.81459  0.63763  0.09972  Biso   1.000  C
  C9       1.0000 0.74058  0.65621  0.06618  Biso   1.000  C
  C10      1.0000 0.74057  0.65618  0.99973  Biso   1.000  C
  C11      1.0000 0.64767  0.63665  0.16619  Biso   1.000  C
  C12      1.0000 0.64766  0.63662  0.09972  Biso   1.000  C
  C13      1.0000 0.54995  0.58193  0.06618  Biso   1.000  C
  C14      1.0000 0.54995  0.58189  0.99972  Biso   1.000  C
  C15      1.0000 0.46228  0.50031  0.16617  Biso   1.000  C
  C16      1.0000 0.46228  0.50029  0.09972  Biso   1.000  C
  C17      1.0000 0.39808  0.40420  0.06617  Biso   1.000  C
  C18      1.0000 0.39806  0.40419  0.99972  Biso   1.000  C
  C19      1.0000 0.36719  0.30829  0.16617  Biso   1.000  C
  C20      1.0000 0.36722  0.30831  0.09972  Biso   1.000  C
  C21      1.0000 0.37430  0.22725  0.06617  Biso   1.000  C
  C22      1.0000 0.37433  0.22729  0.99971  Biso   1.000  C
  C23      1.0000 0.41824  0.17341  0.16619  Biso   1.000  C
  C24      1.0000 0.41825  0.17343  0.09972  Biso   1.000  C
  C25      1.0000 0.49223  0.15483  0.06618  Biso   1.000  C
  C26      1.0000 0.49223  0.15484  0.99971  Biso   1.000  C
  C27      1.0000 0.58516  0.17442  0.16619  Biso   1.000  C
  C28      1.0000 0.58515  0.17443  0.09972  Biso   1.000  C
  C29      1.0000 0.68285  0.22913  0.06617  Biso   1.000  C
  C30      1.0000 0.68284  0.22916  0.99972  Biso   1.000  C
  C31      1.0000 0.77056  0.31079  0.16616  Biso   1.000  C
  C32      1.0000 0.77052  0.31083  0.09970  Biso   1.000  C
  C33      1.0000 0.83478  0.40691  0.26617  Biso   1.000  C
  C34      1.0000 0.83475  0.40691  0.19971  Biso   1.000  C
  C35      1.0000 0.86569  0.50275  0.36621  Biso   1.000  C
  C36      1.0000 0.86567  0.50279  0.29975  Biso   1.000  C
  C37      1.0000 0.85853  0.58380  0.26619  Biso   1.000  C
  C38      1.0000 0.85852  0.58380  0.19972  Biso   1.000  C
  C39      1.0000 0.81454  0.63754  0.36623  Biso   1.000  C
  C40      1.0000 0.81457  0.63761  0.29976  Biso   1.000  C
  C41      1.0000 0.74055  0.65616  0.26621  Biso   1.000  C
  C42      1.0000 0.74057  0.65619  0.19974  Biso   1.000  C
  C43      1.0000 0.64760  0.63652  0.36623  Biso   1.000  C
  C44      1.0000 0.64764  0.63658  0.29976  Biso   1.000  C
  C45      1.0000 0.54994  0.58190  0.26621  Biso   1.000  C
  C46      1.0000 0.54995  0.58191  0.19974  Biso   1.000  C
  C47      1.0000 0.46218  0.50027  0.36622  Biso   1.000  C
  C48      1.0000 0.46223  0.50030  0.29976  Biso   1.000  C
  C49      1.0000 0.39805  0.40419  0.26619  Biso   1.000  C
  C50      1.0000 0.39808  0.40420  0.19973  Biso   1.000  C
  C51      1.0000 0.36713  0.30833  0.36622  Biso   1.000  C
  C52      1.0000 0.36715  0.30829  0.29976  Biso   1.000  C
  C53      1.0000 0.37430  0.22728  0.26621  Biso   1.000  C
  C54      1.0000 0.37431  0.22726  0.19974  Biso   1.000  C
  C55      1.0000 0.41831  0.17355  0.36623  Biso   1.000  C
  C56      1.0000 0.41828  0.17348  0.29976  Biso   1.000  C
  C57      1.0000 0.49230  0.15493  0.26621  Biso   1.000  C
  C58      1.0000 0.49228  0.15490  0.19975  Biso   1.000  C
  C59      1.0000 0.58525  0.17457  0.36623  Biso   1.000  C
  C60      1.0000 0.58521  0.17450  0.29976  Biso   1.000  C
  C61      1.0000 0.68291  0.22918  0.26620  Biso   1.000  C
  C62      1.0000 0.68289  0.22917  0.19973  Biso   1.000  C
  C63      1.0000 0.77066  0.31082  0.36621  Biso   1.000  C
  C64      1.0000 0.77061  0.31080  0.29975  Biso   1.000  C
  C65      1.0000 0.83502  0.40689  0.46623  Biso   1.000  C
  C66      1.0000 0.83490  0.40690  0.39977  Biso   1.000  C
  C67      1.0000 0.86569  0.50269  0.56621  Biso   1.000  C
  C68      1.0000 0.86570  0.50271  0.49976  Biso   1.000  C
  C69      1.0000 0.85848  0.58367  0.46623  Biso   1.000  C
  C70      1.0000 0.85854  0.58376  0.39977  Biso   1.000  C
  C71      1.0000 0.81453  0.63750  0.56622  Biso   1.000  C
  C72      1.0000 0.81454  0.63752  0.49976  Biso   1.000  C
  C73      1.0000 0.74048  0.65602  0.46623  Biso   1.000  C
  C74      1.0000 0.74050  0.65607  0.39977  Biso   1.000  C
  C75      1.0000 0.64758  0.63649  0.56622  Biso   1.000  C
  C76      1.0000 0.64758  0.63651  0.49976  Biso   1.000  C
  C77      1.0000 0.54985  0.58179  0.46624  Biso   1.000  C
  C78      1.0000 0.54988  0.58187  0.39977  Biso   1.000  C
  C79      1.0000 0.46212  0.50025  0.56621  Biso   1.000  C
  C80      1.0000 0.46212  0.50026  0.49977  Biso   1.000  C
  C81      1.0000 0.39782  0.40420  0.46623  Biso   1.000  C
  C82      1.0000 0.39793  0.40420  0.39978  Biso   1.000  C
  C83      1.0000 0.36713  0.30837  0.56622  Biso   1.000  C
  C84      1.0000 0.36711  0.30837  0.49977  Biso   1.000  C
  C85      1.0000 0.37435  0.22741  0.46624  Biso   1.000  C
  C86      1.0000 0.37429  0.22733  0.39977  Biso   1.000  C
  C87      1.0000 0.41835  0.17361  0.56622  Biso   1.000  C
  C88      1.0000 0.41833  0.17359  0.49976  Biso   1.000  C
  C89      1.0000 0.49238  0.15508  0.46623  Biso   1.000  C
  C90      1.0000 0.49235  0.15503  0.39977  Biso   1.000  C
  C91      1.0000 0.58529  0.17459  0.56622  Biso   1.000  C
  C92      1.0000 0.58527  0.17458  0.49976  Biso   1.000  C
  C93      1.0000 0.68300  0.22930  0.46623  Biso   1.000  C
  C94      1.0000 0.68297  0.22922  0.39976  Biso   1.000  C
  C95      1.0000 0.77072  0.31083  0.56621  Biso   1.000  C
  C96      1.0000 0.77072  0.31084  0.49976  Biso   1.000  C
  C97      1.0000 0.83488  0.40685  0.66619  Biso   1.000  C
  C98      1.0000 0.83496  0.40687  0.59975  Biso   1.000  C
  C99      1.0000 0.86569  0.50272  0.76621  Biso   1.000  C
  C100     1.0000 0.86571  0.50270  0.69974  Biso   1.000  C
  C101     1.0000 0.85854  0.58371  0.66620  Biso   1.000  C
  C102     1.0000 0.85852  0.58368  0.59974  Biso   1.000  C
  C103     1.0000 0.81455  0.63753  0.76620  Biso   1.000  C
  C104     1.0000 0.81453  0.63749  0.69973  Biso   1.000  C
  C105     1.0000 0.74048  0.65601  0.66621  Biso   1.000  C
  C106     1.0000 0.74048  0.65601  0.59975  Biso   1.000  C
  C107     1.0000 0.64764  0.63655  0.76620  Biso   1.000  C
  C108     1.0000 0.64760  0.63651  0.69974  Biso   1.000  C
  C109     1.0000 0.54986  0.58185  0.66621  Biso   1.000  C
  C110     1.0000 0.54984  0.58183  0.59974  Biso   1.000  C
  C111     1.0000 0.46222  0.50026  0.76621  Biso   1.000  C
  C112     1.0000 0.46216  0.50027  0.69975  Biso   1.000  C
  C113     1.0000 0.39794  0.40419  0.66620  Biso   1.000  C
  C114     1.0000 0.39786  0.40420  0.59976  Biso   1.000  C
  C115     1.0000 0.36730  0.30836  0.76620  Biso   1.000  C
  C116     1.0000 0.36725  0.30838  0.69975  Biso   1.000  C
  C117     1.0000 0.37437  0.22739  0.66621  Biso   1.000  C
  C118     1.0000 0.37435  0.22741  0.59975  Biso   1.000  C
  C119     1.0000 0.41828  0.17348  0.76619  Biso   1.000  C
  C120     1.0000 0.41830  0.17352  0.69973  Biso   1.000  C
  C121     1.0000 0.49236  0.15501  0.66620  Biso   1.000  C
  C122     1.0000 0.49238  0.15505  0.59974  Biso   1.000  C
  C123     1.0000 0.58523  0.17449  0.76619  Biso   1.000  C
  C124     1.0000 0.58526  0.17452  0.69973  Biso   1.000  C
  C125     1.0000 0.68300  0.22923  0.66621  Biso   1.000  C
  C126     1.0000 0.68303  0.22926  0.59974  Biso   1.000  C
  C127     1.0000 0.77062  0.31080  0.76620  Biso   1.000  C
  C128     1.0000 0.77067  0.31081  0.69975  Biso   1.000  C
  C129     1.0000 0.83481  0.40686  0.86622  Biso   1.000  C
  C130     1.0000 0.83482  0.40685  0.79976  Biso   1.000  C
  C131     1.0000 0.86563  0.50276  0.96621  Biso   1.000  C
  C132     1.0000 0.86563  0.50273  0.89977  Biso   1.000  C
  C133     1.0000 0.85853  0.58375  0.86621  Biso   1.000  C
  C134     1.0000 0.85854  0.58373  0.79974  Biso   1.000  C
  C135     1.0000 0.81461  0.63762  0.96620  Biso   1.000  C
  C136     1.0000 0.81459  0.63761  0.89973  Biso   1.000  C
  C137     1.0000 0.74056  0.65612  0.86620  Biso   1.000  C
  C138     1.0000 0.74053  0.65608  0.79973  Biso   1.000  C
  C139     1.0000 0.64767  0.63663  0.96619  Biso   1.000  C
  C140     1.0000 0.64767  0.63661  0.89973  Biso   1.000  C
  C141     1.0000 0.54994  0.58190  0.86620  Biso   1.000  C
  C142     1.0000 0.54992  0.58188  0.79974  Biso   1.000  C
  C143     1.0000 0.46228  0.50029  0.96619  Biso   1.000  C
  C144     1.0000 0.46228  0.50027  0.89974  Biso   1.000  C
  C145     1.0000 0.39810  0.40418  0.86620  Biso   1.000  C
  C146     1.0000 0.39808  0.40418  0.79976  Biso   1.000  C
  C147     1.0000 0.36726  0.30833  0.96618  Biso   1.000  C
  C148     1.0000 0.36726  0.30833  0.89973  Biso   1.000  C
  C149     1.0000 0.37435  0.22733  0.86619  Biso   1.000  C
  C150     1.0000 0.37438  0.22736  0.79973  Biso   1.000  C
  C151     1.0000 0.41821  0.17339  0.96618  Biso   1.000  C
  C152     1.0000 0.41824  0.17343  0.89971  Biso   1.000  C
  C153     1.0000 0.49227  0.15488  0.86618  Biso   1.000  C
  C154     1.0000 0.49230  0.15492  0.79972  Biso   1.000  C
  C155     1.0000 0.58513  0.17438  0.96618  Biso   1.000  C
  C156     1.0000 0.58516  0.17443  0.89972  Biso   1.000  C
  C157     1.0000 0.68290  0.22920  0.86620  Biso   1.000  C
  C158     1.0000 0.68294  0.22922  0.79973  Biso   1.000  C
  C159     1.0000 0.77047  0.31083  0.96620  Biso   1.000  C
  C160     1.0000 0.77053  0.31079  0.89975  Biso   1.000  C
  I1       1.0000 0.10883  0.40867  0.96649  Biso   1.000  I
  I2       1.0000 0.11867  0.41766  0.50189  Biso   1.000  I
  I3       1.0000 0.07602  0.30893  0.76339  Biso   1.000  I
  Cl1      1.0000 0.14661  0.55126  0.04320  Biso   1.000  Cl
  Cl2      1.0000 0.08186  0.35077  0.65049  Biso   1.000  Cl
  Cl3      1.0000 0.06644  0.25153  0.88782  Biso   1.000  Cl
